RUNSPEC

TITLE
   Test model 

DIMENS
   3 3 1 /

EQLDIMS
/

TABDIMS
/

OIL 

WATER

GAS

DISGAS

METRIC

START
   1 'JAN' 2023 /

WELLDIMS
   1 4 1 1 /

UNIFIN
UNIFOUT

GRID

INIT

NOECHO

DX 
  9*100 /

DY	
	9*100 /

DZ
	9*50  /

TOPS
	9*3000 /

PORO
  9*0.3 /

PERMX
	9*500 /

PERMY
	9*500 /

PERMZ
	9*500 /

ECHO

PROPS
-------------------------------------------------------------------------
NOECHO

INCLUDE
'../PROPS_NC.INC' / 

REGIONS 
-- ---------------------------------------------------------------------------
--  EQUALS
-- --          I1  I2  J1  J2  K1  K2
--  FIPNUM 1    1*  1*  1*  1*  1  1 / SET REGION 1
--  FIPNUM 2    1*  1*  1*  1*  3  3 / SET REGION 1
-- /

SOLUTION
-- -------------------------------------------------------------------------

EQUIL
--datum press OWC WATCAP GOC GASCAP 
	3000 200 3042 0 3010 0 1 0 0 /

RPTSOL
FIP=1 SWAT /

RSVD
-- Depth    RS(dissolved gas)
3000 90
3042 90 /


SUMMARY
-- -------------------------------------------------------------------------	 

FWIR
FWIT
FPR
RPR
/

CWFR
	'INJ'  2 2 1  /
/

CWIR
	'INJ'  2 2 1  /
/

CWIT
	'INJ'  2 2 1  /
/

BPR
1	1 	1/
1 	2 	1/
1 	3 	1/
2 	1 	1/ 
2 	2 	1/
2 	3 	1/
3 	1 	1/ 
3 	2 	1/
3 	3 	1/
4 	1 	1/
4 	2 	1/
4 	3 	1/
/

WBHP
  'INJ'
/

WWIR
  'INJ'
/

WWIT
  'INJ'
/



SCHEDULE
---------------------------------------------------------------------------
TUNING
  1.0 1.0 1.0 1.0 1.0 1.0 1.0 1.0 1E20 1* /
--   0.1 0.1 0.1 0.1 1.0 1.0 1.0 1.0 1E20 1* /
  /
/

RPTSCHED
	 'FIP=2'  'PRESS' 'SGAS' 'RS' 'WELLS=1' /

RPTRST
	'BASIC=1' PRESS	KRO KRW	SOIL SWAT /

DRSDT
 0/

WELSPECS
-- Name 	Group	I  J                    Cross Flow
  'INJ'		'G1' 	2  2  1* 'WAT' 0.0 STD STOP YES	1*/
/

COMPDAT
	'INJ'  	2	     2   	1	1 	'OPEN'	1*	1*	0.3 /
/

WCONINJE
	'INJ' 	'WAT' 	'OPEN' 	BHP 	1000 	1* 	255	/
/

TSTEP
1 /

WCONINJE
	'INJ' 	'WAT' 	'OPEN' 	BHP 	1000 	1* 	255	/
/

TSTEP
1 /

WCONINJE
	'INJ' 	'WAT' 	'OPEN' 	BHP 	1000 	1* 	255	/
/

TSTEP
1 /

WCONINJE
	'INJ' 	'WAT' 	'OPEN' 	BHP 	1000 	1* 	255	/
/

TSTEP
1 /

WCONINJE
	'INJ' 	'WAT' 	'OPEN' 	BHP 	1000 	1* 	255	/
/

TSTEP
1 /

WCONINJE
	'INJ' 	'WAT' 	'SHUT' 	BHP 	1000 	1* 	255	/
/

TSTEP
2 /

 
WCONINJE
	'INJ' 	'WAT' 	'OPEN' 	BHP 	1000 	1* 	255	/
/

TSTEP
1 /

WCONINJE
	'INJ' 	'WAT' 	'SHUT' 	BHP 	1000 	1* 	255	/
/

TSTEP
5 /


END